36
	Energy:      55.1670257
C         -1.33220       -1.02257        5.88514
C         -1.93374       -2.43046        4.00721
C         -1.94907       -2.16995        5.38030
C         -0.69577       -0.12783        5.02034
C         -0.67281       -0.37723        3.63879
C         -0.03656        0.51496        2.76361
C         -0.01616        0.26144        1.38360
C          0.62018        1.15355        0.50755
C         -0.64097       -0.90070        0.87228
C         -1.27763       -1.79343        1.74794
C         -1.29801       -1.54011        3.12714
H         -1.34729       -0.82609        6.94942
H         -2.41754       -3.32549        3.63449
H         -2.44038       -2.85924        6.05487
H         -0.22288        0.75658        5.43055
H          0.44223        1.40570        3.15634
H          1.09920        2.04452        0.89956
H         -1.75684       -2.68458        1.35667
C          0.64097        0.90070       -0.87228
C         -0.62018       -1.15355       -0.50755
C          0.01616       -0.26144       -1.38360
C          1.27763        1.79343       -1.74794
H         -1.09920       -2.04452       -0.89956
C          0.03656       -0.51496       -2.76361
C          1.29801        1.54011       -3.12714
H          1.75684        2.68458       -1.35667
C          0.67281        0.37723       -3.63879
H         -0.44223       -1.40570       -3.15634
C          1.93374        2.43046       -4.00721
C          0.69577        0.12783       -5.02034
C          1.94907        2.16995       -5.38030
H          2.41754        3.32549       -3.63449
C          1.33220        1.02257       -5.88514
H          0.22288       -0.75658       -5.43055
H          2.44038        2.85924       -6.05487
H          1.34729        0.82609       -6.94942
